8
	Energy:       0.1406274
C         -0.94071       -0.34862        0.00000
C          0.57847       -0.34862       -0.00000
H         -1.31727        0.42313        0.70395
H         -1.31727       -1.34414        0.31638
H         -1.31727       -0.12486       -1.02033
H          0.95503       -0.57239        1.02033
H          0.95503        0.64689       -0.31638
H          0.95503       -1.12037       -0.70395
