11
	Energy:       0.9890638
C         -3.01360       -0.30223        1.54467
C         -1.65661       -0.59087        0.91036
C         -0.89072        0.69802        0.62599
H         -3.54569       -1.25823        1.73495
H         -3.63374        0.32096        0.86555
H         -2.88273        0.22997        2.51107
H         -1.80766       -1.14285       -0.04232
H         -1.05968       -1.22647        1.59939
H         -1.46108        1.33789       -0.08068
H          0.09178        0.45347        0.17029
H         -0.71604        1.25996        1.56818
