18
	Energy:       7.1245417
C         -3.72840        0.94621        1.47466
C         -3.00578       -0.39982        1.63073
C         -1.87922       -0.52400        0.59450
C         -0.88467        0.63629        0.74588
C         -1.60728        1.98233        0.58981
C         -2.73384        2.10650        1.62604
H         -4.52640        1.03423        2.24274
H         -4.20500        0.99604        0.47067
H         -3.73035       -1.23159        1.49780
H         -2.57652       -0.47278        2.65446
H         -2.31455       -0.50698       -0.42913
H         -1.34985       -1.49131        0.73079
H         -0.08667        0.54827       -0.02221
H         -0.40806        0.58646        1.74986
H         -2.03654        2.05529       -0.43392
H         -0.88270        2.81409        0.72275
H         -3.26321        3.07382        1.48974
H         -2.29852        2.08948        2.64967
